//Z030199A JOB ,'Brandon Tweed',REGION=2M
/*JOBPARM ROOM=199,L=10
//ASSISTV EXEC PGM=ASSISTV,
// PARM='P=100,PX=50,R=5000,RX=3000,L=60,XREF=0',
// REGION=512K
//STEPLIB DD DSN=USER1.ASSIST.LOADLIB,DISP=SHR
/*
//* X'00C' is VIRTRDR1 -- PARMS
//VIRTRDR1 DD DSN=T90RPR1.CS468PUB.OBJLIB(PARM1111),DISP=SHR
//         DD DSN=T90RPR1.CS468PUB.OBJLIB(PARM2222),DISP=SHR
//         DD DSN=T90RPR1.CS468PUB.OBJLIB(PARM3333),DISP=SHR
//         DD DSN=T90RPR1.CS468PUB.OBJLIB(PARM4444),DISP=SHR
//         DD DSN=T90RPR1.CS468PUB.OBJLIB(PARM7777),DISP=SHR
//         DD DSN=T90RPR1.CS468PUB.OBJLIB(ALLNINES),DISP=SHR
//*
//* X'00D' is VIRTRDR2 -- USER PROGRAM INPUT
//VIRTRDR2 DD DSN=SYS1.MACLIB(CHECK),DISP=SHR
//         DD DSN=T90RPR1.CS468PUB.OBJLIB(ALLNINES),DISP=SHR
//         DD DSN=SYS1.MACLIB(EOV),DISP=SHR
//         DD DSN=T90RPR1.CS468PUB.OBJLIB(ALLNINES),DISP=SHR
//         DD DSN=SYS1.MACLIB(NOTE),DISP=SHR
//         DD DSN=T90RPR1.CS468PUB.OBJLIB(ALLNINES),DISP=SHR
//         DD DSN=SYS1.MACLIB(ERASE),DISP=SHR
//         DD DSN=T90RPR1.CS468PUB.OBJLIB(ALLNINES),DISP=SHR
//         DD DSN=SYS1.MACLIB(EXCP),DISP=SHR
//         DD DSN=T90RPR1.CS468PUB.OBJLIB(ALLNINES),DISP=SHR
//*
//FT06F001 DD SYSOUT=* PRINTOUT FROM THE ASSEMBLY, TRACE, ETC.
//SYSPRINT DD SYSOUT=*
//SYSLIB DD DSN=SYS1.MACLIB,DISP=SHR
// DD DSN=SYS2.MACLIB,DISP=SHR
// DD DSN=T90RPR1.CS468PUB.MACLIB,DISP=SHR
//SYSIN DD *
         TITLE 'Brandon Tweed SOS-Uni'
**********************************************************************
* Brandon Tweed
* CSCI 468 Spring 2005
* SOS-Uni Assignment
*
**********************************************************************
         PRINT GEN
*SYSLIB LOADER,DSECTS,EQUREGS,EXIT,LOUNTR,FRECB100,GETCB100,WAITS
*SYSLIB EQUCCWS
**********************************************************************
* CCW MACRO
* When invoked, defines storage for a CCW.
**********************************************************************
         MACRO
&NAME    CCW  &CMD,&BUF,&FLAG,&LEN
&NAME    DC   0D'0',AL1(&CMD),AL3(&BUF),AL1(&FLAG),X'0',AL2(&LEN)
         MEND
*
         EQUCCWS                      EQUATES FOR WORKING WITH CCWs
*
**** CCW COMMAND CODE EQUATES
*
READ     EQU   X'02'
WRITEWO  EQU   X'01'
SPACE1IM EQU   X'0B'
SPACE2IM EQU   X'13'
SPACE3IM EQU   X'1B'
SKIPCH1  EQU   X'8B'
*
         DSECTS                       BRING IN DSECTS FOR USE
*
**********************************************************************
* SVC 13 MODIFIED STORAGE
**********************************************************************
*
SVC13S   DSECT          
IOBSVC13 DC    F'0'                   Fullword Alignment
         ORG   IOBSVC13               Go back and redefine
         DC    CL4'IOBW'              IOB IDENTIFICATION
         DC    XL2'000F'              FOR XPRINT
         DC    X'01'                  '01' = WRITE
         DC    C'0'                   RESERVED FOR STUFF
         DC    A(0)                   A(BUFFER) TO WRITE 
         DC    H'0'                   LENGTH OF BUFFER TO READ/WRITE
         DC    H'0'                   RESERVED FOR STUFF
SVC13WRK DC    CL16'L'                LOUNTR work area
RETLNTR  DC    XL2'07F2'              For coming back from LOUNTR
PARM1    DC    A(0)                   Address of the print line
PARM2    DC    A(0)                   Address of the halfword length
PARM3    DC    A(0)                   Address of IOB
SASVC13  DC    16F'0'                 Save area for SVC13PRN
PLINEL   DC    H'0'                   Pline length
*
SVC13BUF DC    CL133' '               Line buffer
*
         ORG   SVC13BUF               Redefine line buffer
GPRMSG   DC C'0'                      GPR carriage control
         DC CL9'GPR 0-7  '            GPR MESSAGES
         DC 8C' '                     SPACE OUT THE GPRS
GPL1STRT DC CL9'XXXXXXXX '            GPR 0
         DC CL9'XXXXXXXX '            GPR 1
         DC CL9'XXXXXXXX '            GPR 2
         DC CL9'XXXXXXXX '            GPR 3
         DC CL9'XXXXXXXX '            GPR 4
         DC CL9'XXXXXXXX '            GPR 5
         DC CL9'XXXXXXXX '            GPR 6
         DC CL9'XXXXXXXX '            GPR 7
GPL1PLEN EQU *-GPRMSG                 length of print line 1
*
         ORG   SVC13BUF               Redefine line buffer
FPRPLIN  DC C'0'                      double space
         DC CL17'FPRs 0,2,4,6:    '   next
FPR0STRT DC CL17'XXXXXXXXXXXXXXXX '   FPR 0
         DC CL17'XXXXXXXXXXXXXXXX '   FPR 2
         DC CL17'XXXXXXXXXXXXXXXX '   FPR 4
         DC CL17'XXXXXXXXXXXXXXXX '   FPR 6
FPRPLLEN EQU *-FPRPLIN                Length of FPR pline
*
         ORG   SVC13BUF               Redefine line buffer
R1MSG    DC C'0'                      Carriage control
         DC CL16'CONTENTS OF R1: '    R1 Message
R1VAL    DC CL8'XXXXXXXX'             R1 Message
R1MSGLEN EQU *-R1MSG                  R1 Message Length
*
         ORG   SVC13BUF               Redefine line buffer
PSWMSG   DC C'0'                      CARRIAGE CONTROL
         DC CL21'PSW AT TIME OF ERROR:' PSW Message
         DC 3C' '
PSWP1    DC CL8'PSW1 HERE'            PSW PART 1
         DC 3C' '                     BLANKS
PSWP2    DC CL8'PSW2 HERE'            PSW PART 2
PSWMSGL  EQU *-PSWMSG                 PSW message length
*
         ORG   SVC13BUF               Redefine line buffer
DMSG     DC C'0'                      CARRIAGE CONTROL
         DC CL12'DATA AT PSW '        Data Message
         DC 5C' '                     SPACING
DAADDR   DC CL9'XXXXXXXX '            Data area address
DMSDASH  DC C'-'                      HYPHEN TO BE INSERTED
         DC C' '                      SPACING
DBYTES1  DC CL8'XXXXXXXX'             First 4 data bytes
         DC 2CL1' '                   Data Message
DBYTES2  DC CL8'XXXXXXXX'             Second 4 data bytes
         DC 2CL1' '                   Data Message
DBYTES3  DC CL8'XXXXXXXX'             Last 4 data bytes
         DC 81C' '                    Rest of print line
DMSGL    EQU *-DMSG                   Length of Data Message      
         TITLE 'START OF FIRST 4K'          
*
**********************************************************************
* START OF FIRST 4K OF STORAGE
**********************************************************************
*
FIRST4K  CSECT                        START OF FIRST4K
         USING FIRST4K,0              ESTABLISH FIRST4K ADDR
         DC    2048X'0119'            FILL 1ST WITH 'QUICK STOP'
         ORG   FIRST4K                GO BACK TO START OF 1ST 4K
         DC    X'010401190F',AL3(IPLPGM) DEFINE IPLPSW
         ORG   FIRST4K+X'10'          GO TO LOCATION FOR @(CVT)
CVT#1    DC    A(MYCVT)               ADDRESS OF MYCVT
*
*********************************************
* OLD PSWs
*********************************************
*
         ORG   FIRST4K+X'18'          GO TO LOCATION FOR OLDPSWs
OPSWEX   DC    D'0'                   OLD EXT INT PSW
OPSWSVC  DC    D'0'                   OLD SVC PSW
OPSWPC   DC    D'0'                   OLD PC PSW 
OPSWMC   DC    D'0'                   OLD MC PSW 
OPSWIO   DC    D'0'                   OLD I/O PSW
CSW      DC    D'0'                   Channel Status Word
CAW      DC    F'0'                   Channel Address Word
CVT#2    DC    A(MYCVT)               ADDRESS OF MYCVT
CLOCK    DC    F'0'                   ASSEMBLE CLOCK AS VALUE ZERO
*
********************************************
* NEW PSWs
********************************************
*
         ORG   FIRST4K+X'58'               LOCATION FOR NEW PSWS
NPSWEX   DC    X'010601190F',AL3(EXFLIH)   NEW PSW EXTERNAL
NPSWSVC  DC    X'010401190F',AL3(SVCFLIH)  NEW PSW SVC
NPSWPC   DC    X'010401190F',AL3(AFTERLOP) NEW PSW PC
NPSWMC   DC    X'010401190F',AL3(MCFLIH)   NEW PSW MACHINE CHECK
NPSWIO   DC    X'010401190F',AL3(IOFLIH)   NEW PSW I/O
*
         ORG   FIRST4K+X'A0'          LOCATION FOR LOWPSW
LOWPSW   DC    D'0'                   FILL LOWPSW WITH ZERO
*
         ORG   FIRST4K+X'B0'          LOCATION FOR LOWTIME
LOWTIME  DC    F'0'                   FILL LOWTIME WITH ZERO
*
         ORG   FIRST4K+X'BC'          MOVE TO LOCATION FOR LEVELABN
LEVELABN DC    X'0119'                SET VALUE FOR LEVELABN
LEVELFLG DC    C'X'                   LATER SET TO C'S' IN IPL
TYP1FLAG DC    C'X'                   LATER SET TO C'0' IN IPL
*
*****************************************
*  SAVE AREAS FOR INTERRUPTS
*****************************************
*
EXSAVE   DC    16CL4'EX'              SAVE AREA FOR EXTERNAL INTS
SVCSAVE  DC    16CL4'SV'              SAVE AREA FOR SVC INTERRUPTS
PCSAVE   DC    16CL4'PC'              SAVE AREA FOR PC INT.
IOSAVE   DC    16CL4'IO'              SAVE AREA FOR I/O INTERRUPTS
*
******************************************
* TCB WORDS, LOUNTR
******************************************
*
         ORG   FIRST4K+X'518'         MOVE TO LOCATION FOR TCBWORDS
TCBWORDS DC    4F'0'                  FILL TCBWORDS WITH ZEROS         
         ORG   FIRST4K+X'7E0'         MOVE TO LOCATION FOR LOUNTR
LOUNTR   DS    0H                     LABEL FOR START OF LOUNTR
         LOUNTR                       INVOKE LOUNTR MACRO
*
*********************************************************************
* UCB - UNIT CONTROL BLOCKS
*********************************************************************
*
         ORG FIRST4K+X'800'           Go to location for UCBs
STRTUCB  DC    128X'00'               Set them all to zero
         ORG   STRTUCB                Go back and define each UCB
UCB1     DC    CL3'UCB',X'FF'         UCB IDENT
         DC    X'000C'                UCB for device VIRTRDR1
         ORG   UCB1+(UCBUCB-UCB)      Go to UCBUCB field
         DC    A(UCB2)                A(next UCB)
         DC    CL4'000C'              UCBNAME field
         ORG   UCB1+(UCBIOSTR-UCB)    Go to UCBIOSTR field
         DC    A(SIOC)                Address of UCB's IO routine
         DC    A(0)                   Reserved
*
UCB2     DC    CL3'UCB',X'FF'         UCB IDENT
         DC    X'000D'                UCB for device
         ORG   UCB2+(UCBUCB-UCB)      Go to UCBUCB field
         DC    A(UCB3)                A(next UCB)
         DC    CL4'000D'              UCBNAME field
         ORG   UCB2+(UCBIOSTR-UCB)    Go to UCBIOSTR field
         DC    A(SIOD)                Address of UCB's IO routine
         DC    A(0)                   Reserved
*
UCB3     DC    CL3'UCB',X'FF'         UCB IDENT
         DC    X'000E'                UCB for device
         ORG   UCB3+(UCBUCB-UCB)      Go to UCBUCB field
         DC    A(UCB4)                A(next UCB)
         DC    CL4'000E'              UCBNAME field
         ORG   UCB3+(UCBIOSTR-UCB)    Go to UCBIOSTR field
         DC    A(SIOE)                Address of UCB's IO routine
         DC    A(0)                   Reserved
*
UCB4     DC    CL3'UCB',X'FF'         UCB IDENT
         DC    X'000F'                UCB for device
         ORG   UCB4+(UCBUCB-UCB)      Go to UCBUCB field
         DC    A(0)                   A(0) - Last UCB in chain
         DC    CL4'000F'              UCBNAME field
         ORG   UCB4+(UCBIOSTR-UCB)    Go to UCBIOSTR field
         DC    A(SIOF)                Address of UCB's IO routine
         DC    A(0)                   Reserved     
*
************************************
* SVCTABLE
************************************
*
         ORG   FIRST4K+X'2000'        MOVE TO LOCATION FOR SVC TABLE
SVCTABLE DC    16D'0'                 FILL SVC TABLE WITH ZEROS
         ORG   SVCTABLE+8*0           GO TO ENTRY FOR SVC 0
         DC    A(SVC0)                ADDRESS OF SVC 0
         ORG   SVCTABLE+8*1           GO TO ENTRY FOR SVC 1
         DC    A(SVC1)                ADDRESS OF SVC 1
         ORG   SVCTABLE+8*2           GO TO ENTRY FOR SVC 2
         DC    A(SVC2)                ADDRESS OF SVC 2
         ORG   SVCTABLE+8*3           GO TO ENTRY FOR SVC 3
         DC    A(SVC3)                ADDRESS OF SVC 3
         ORG   SVCTABLE+8*8           GO TO ENTRY FOR SVC 8
         DC    A(SVC8)                ADDRESS OF SVC 8
         DC    X'80'                  B'10' indicates type 2 SVC
         ORG   SVCTABLE+8*13          GO TO ENTRY FOR SVC 13
         DC    A(SVC13)               ADDRESS OF SVC 13
         DC    X'C0'                  Indicate type 4 SVC
         ORG   SVCTABLE+8*14          GO TO ENTRY FOR SVC 14
         DC    A(SVC14)               ADDRESS OF SVC 14
         DC    X'C0'                  Type 4 SVC
         ORG   SVCTABLE+8*15          GO TO ENTRY FOR SVC 5
         DC    A(BR14)                ADDRESS OF "BR14" ROUTINE
         ORG   ,                      MOVE IT FORWARD
BR14     DC    X'1BFF07FE'            SR 15,15 AND BR 14
*
*********************************************************************
* DISPATCHER
*
* ON ENTRY:
*    R3  = A(CVT)
*    R12 = A(DISPATCH)
*********************************************************************
*
         ORG   FIRST4K+X'2400'        MOVE TO DISPATCHER LOCATION
         USING DISPATCH,12            DISPATCHER ADDRESSABILITY
         USING CVT,3                  CVT ADDRESSABILITY
DISPATCH L     4,CVTHEAD              GET ADDRESS FIRST TCB
         USING TCB,4                  TCB ADDRESSABILITY
DLOOP    LTR   4,4                    CHECK TCB POINTER NOT NULL
         BZ    D0119                  IF SO, DIE
         L     5,TCBRB                GET RB ADDRESS
         USING RB,5                   RB ADDRESSABILITY
         LTR   5,5                    VERIFY RB POINTER NOT NULL
         BZ    ENDJOB                 RB POINTER NULL = END OF JOB
         CLI   RBWCF,X'00'            CHECK WAIT COUNT FIELD = 0
         BE    DODISP                 IF SO, DISPATCH THIS TCB
         L     4,TCBTCB               IF NOT, GO TO NEXT TCB
         B     DLOOP                  CONTINUE TCB LOOP
*
* 1) save address of TCB to be dispatched into TCBWORDS+4
*
DODISP   ST    4,TCBWORDS+4           SAVE @ TCB TO BE DISPATCHED
*
* 2) Move PSW to be dispatched from RB to lowcore
*
         MVC   LOWPSW(8),RBOPSW       MOVE PSW TO BE DISPATCHED
*
* Increment dispatch count
*
         L     7,DCOUNT               GET DCOUNT
         LA    7,1(,7)                INCREMENT IT
         ST    7,DCOUNT               SAVE IT
*
* After so many dispatches, turn off the trace
*
         C     7,DMAX                 Check dispatch count > 60
         BNH   LDFPRS                 If so, turn off the trace
         XOPC  4                      Turn off the trace
*
* 3) Load all registers
*
LDFPRS   LD    0,TCBFRS+8*0           LOAD FPR 0
         LD    2,TCBFRS+8*1           LOAD FPR 2
         LD    4,TCBFRS+8*2           LOAD FPR 4
         LD    6,TCBFRS+8*3           LOAD FPR 6
*
* Save time of dispatch into TCB before losing addressability
* 
         MVC   TCBTDISP(4),CLOCK      SAVE TIME OF DISPATCH
         LM    0,15,TCBGRS            LOAD ALL GPRS
*
* 4) Test/set the LEVELFLG prior to departing for
*    THE SEA OF TASK
*
         CLI   LEVELFLG,C'S'          CHECK LEVELFLG IS 'S'
         BNE   LEVELABN               ABEND IF NOT
         MVI   LEVELFLG,C'T'          SET LEVELFLG TO TASK
*
* 5) Load the PSW to complete the dispatch
*
         LPSW  LOWPSW                 Load PSW to run task
*
*** BEGINNING OF ENDJOB CODE ****
*
* 1) UNCHAIN THE TCB
*
ENDJOB   L     7,TCBBACK              GET BACKWARD TCB PTR
         L     8,TCBTCB               GET FORWARD  TCB PTR
         MVC   TCBUNCH(4),UNCH        INDICATE UNCHAINED
         DROP  4                      DONE WITH CURRENT TCB
*
* UPDATE FORWARD POINTER OF PREVIOUS TCB
*
         USING TCB,7                  PREV TCB ADDR
         ST    8,TCBTCB               UPDATE FORWARD PTR
         DROP  7                      DONE WITH PREV TCB
*
* UPDATE BACK PTR OF NEXT TCB
*
         USING TCB,8                  ADDR FOR NEXT TCB
         ST    7,TCBBACK              UPDATE BACK PTR OF NEXT TCB
         DROP  8                      DONE WITH "NEXT" TCB
*
* 2) PRINT "END OF JOB" MESSAGE
*
         USING TCB,4                  REFER TO TCB UNCHAINED
         MVC   EJTCBN(8),TCBTNAME     GET TCB NAME
         MVC   EJPGMN(8),TCBPNAME     GET PROGRAM NAME
*
         MVC   EJWRK+12(4),TCBTCPUP   PUT TASK TIME INTO LOUNTR
         BAL   1,LOUNTR               CALL LOUNTR ON TASK TIME
EJWRK    DC    CL16'L'                LOUNTR STORAGE AREA
         MVC   EJTT(8),EJWRK          TASK TIME -> PRINT LINE
*
         MVC   EJWRK2+12(4),TCBTCPUS  PUT SV Task time into LOUNTR
         BAL   1,LOUNTR               CALL LOUNTR TO xLATE SV TASK
EJWRK2   DC    CL16'L'                STORAGE FOR SV TIME LOUNTR
         MVC   EJST(8),EJWRK2         Save Super Time to Print Line
*
         MVC   EJ4WRK+12(4),TCBTWAIT  Get I/O wait time
         BAL   1,LOUNTR               Use lounter to xlate wait time
EJ4WRK   DC    16C'C'                 storage for LOUNTR call
         MVC   EJIOW(8),EJ4WRK        Copy xlated wait time to pline
*
         MVC   EJ5WRK+12(4),TCBIOCNT  Copy I/O counts into LOUNTR buf
         BAL   1,LOUNTR               Call LOUNTR to xlate I/O counts
EJ5WRK   DC    16C'R'                 storage for LOUNTR call
         MVC   EJIOCNT(8),EJ5WRK      Put xlated I/O counts on pline
         XPRNT EJMSG2,133             PRINT 2ND END JOB MSG
*
* Decrement CURI
*
         L     2,CVTMSDAT             Get @ MSDA from CVT
         USING MSDA,2                 MSDA addressability 
         L     9,MSDACURI             Get the CURI
         BCTR  9,0                    SUBTRACT ONE
         ST    9,MSDACURI             Store the new CURI
*
* Perform Branch entry into SVC 2
*
         L     6,CVTSVCTA             Get addr. of SVC table
         L     6,2*8(,6)              Get addr of SVC 2
         LTR   6,6                    Check address
         BZ    D0119                  If invalid address, die
         L     0,MECBINIT             Put post code into R0 (bits 2-31)
         LA    1,MSDAMECB             Get addr. of ECB into R1
*
         CLI   TYP1FLAG,C'0'          CHECK IF IN TYPE 1 STATE
         BNE   LEVELABN               IF NOT, SOMETHING WRONG, DUMP
         MVI   TYP1FLAG,C'1'          OTHERWISE SWITCH TO NON-TYPE 1 
*
         BALR 14,6                    Branch into SVC2
*
         CLI   TYP1FLAG,C'1'          CHECK IF IN TYPE 1 STATE 
         BNE   LEVELABN               IF NOT, SOMETHING WRONG, DUMP
         MVI   TYP1FLAG,C'0'          OTHERWISE SWITCH TO NON-TYPE 1
*      
* Post completed, Continue the dispatch loop
*
         B     DISPATCH               CONTINUE DISPATCH LOOP   
         DROP  3,4,5                  DONE WITH CVT, TCB, RB
D0119    XOPC  25                     DIE ON ERROR
*
************************************
* DISPATCHER WORKING STORAGE
************************************
*
EJMSG2   DC    C'0'                   CARRIAGE CONTROL
         DC    CL20'SOS TERMINATING!' TERMINATION MESSAGE
         DC    CL10'TCB NAME: '       TCB NAME
EJTCBN   DC    CL8'XXXXXXXX'          PUT TCB NAME HERE
         DC    CL11' PGM NAME: '      PGM NAME
EJPGMN   DC    CL8'XXXXXXXX'          PUT PGM NAME HERE
         DC    CL11' PROBLEM: '       TASK TIME
EJTT     DC    CL8'XXXXXXXX'          PUT TASK TIME HERE
         DC    CL12' SUPER: '         SUPERVISOR TIME
EJST     DC    CL8'XXXXXXXX'          SUPERVISOR TIME HERE
         DC    CL10' TCBTWAIT='       I/O WAIT TIME MESSAGE
EJIOW    DC    8C'X'                  INITIAL I/O WAIT TIME VALUE
         DC    CL10' TCBIOCNT='       I/O COUNT MESSAGE
EJIOCNT  DC    8C'Y'                  INITIAL I/O COUNT VALUE
*
UNCH     DC    CL4'UNCH'              UNCH MESSAGE FOR TCB
         DC    0F'0'                  Align on a fullword
MECBINIT DC    X'7F',C'DIS'           STUFF FOR RESETTING POST CODE
*
         ORG   FIRST4K+((*-FIRST4K+31)/32*32)      NICE ALIGNMENT
         DC    CL28'TOTAL DISPATCH COUNT AT LEFT'  DCOUNT MESSG
DCOUNT   DC    F'0'                   START COUNT AT ZERO
DMAX     DC    F'60'                  For turning off trace
*
************************************
* CVT - COMMUNICATION VECTOR TABLE
************************************
*
         ORG   FIRST4K+X'2800'        MOVE TO LOCATION FOR THE CVT
MYCVT    DC    96X'0'                 SET UP THE CVT
         ORG   MYCVT                  GO BACK AND DEFINE FIELDS
         DC    A(TCBWORDS)            CVTTCBP
         DC    A(SVCTABLE)            CVTSVCTA
         DC    A(0)                   CVTHEAD
         DC    A(STRTUCB)             CVTUCBS (address of UCBs)
         ORG   MYCVT+(CVTC100H-CVT)   LOCATION FOR CVTC100H
         DC    A(CB100HDR)            HEADER ADDRESS CB100s (CVT100H)
         DC    A(DISPATCH)            (CVT0DS) ADDRESS OF DISPATCHER
         DC    A(BEGINIO)             ADDRESS OF BEGINIO ROUTINE
         DC    A(CHAP)                ADDRESS OF CHANGE PRIORITY
         ORG   MYCVT+(CVTBRABN-CVT)   Go to location for CVTBRABN
         DC    A(BRABEND)             Addr Branch ABEND Routine
         ORG   MYCVT+(CVTRQENQ-CVT)   Go to location for CVTRQENQ
         DC    A(RQEENQ)              address RQE enqueing routine
         ORG   MYCVT+(CVTMSECB-CVT)   LOCATION FOR CVTMSECB
         DC    A(LOCMECB)             ADDRESS FOR MSECB
         ORG   MYCVT+(CVTMSDAT-CVT)   LOCATION FOR CVTMSDAT
         DC    A(MYMSDA)              ADDRESS FOR MYMSDA
         SVC   3                      SVC 3
         BCR   15,14                  CVTBRET
         DC    A(NONTYP1)             CVTSSVRB For scheduling SVRB
         ORG   MYCVT+(CVTIDENT-CVT)   LOCATION FOR IDENT
         DC    CL4'CVT '              INSERT THE CVT IDENT
         ORG   ,                      MOVE ON
         TITLE 'IPL ROUTINE DOC' 
*
**********************************************************************
* IPLPGM
*
* INPUT:  NONE
*
* OUTPUT: A MESSAGE THAT STATES THE VALUE SAVED FOR CVTMZ00
*
* ENTRY CONDITONS: None
*
* EXIT CONDITIONS: System setup as described in IPL handout
*
* REGISTER USAGE:
*
*    R0 -  ADDRESS OF LOWEST STORAGE AREA IN MEMORY (FOR TRACING)
*    R1 -  HIGHEST ADDRESS IN THE ASSEMBLY (FOR TRACING)
*          ALSO USED BY LOUNTR
*    R2 -  ASSISTV TRACE TYPE CODES
*    R3 -  CVT ADDRESSABILITY
*    R6 -  USED IN PERFORMING LOGICAL COMPARISONS
*          (FOR THE SOC5 AND THE ADDRESS OF SOC5 INSTRUCTION)
*    R7 -  HOLDS STORAGE KEY OF ZERO
*    R8 -  HOLD ADDRESS TO SET STORAGE KEY VALUE
*    R12 - USED FOR IPLPGM ADDRESSABILITY
*
* LOGIC:
*
* 1) Set up addressability based upon R12
* 2) Set the clock to X'50' to the value X'7FFFFFF'
* 3) Turn on the Assist-V Trace Facility
* 4) 4.1) Set all of the 2K blocks of memory with a protection byte of
*         X'00'
*    4.2) Check that a SOC5 caused the program check interrupt
*    4.3) Make sure address of instruction causing SOC5 is in 
*         old program check PSW
*    4.4) Print the value of CVTMZ00
*
**********************************************************************
         TITLE 'IPL ROUTINE CODE'
         ORG   FIRST4K+X'3000'        MOVE TO THE IPL ROUTINE
* 
* 1. Set up Addressability based on R12
*
IPLPGM   BALR  12,0                   Put ani into R12
         BCTR  12,0                   Decrement R12 by 1
         BCTR  12,0                   Decrement again
         USING IPLPGM,12              Now R12 points to start of IPLPGM
*
* 2. Set the Clock (X'50') to X'7FFFFFF'
*
         MVC   CLOCK(4),TIMEVAL       set value for clock
*
* 3. Turn on the Assist-V Trace Facility
*
         LM    0,2,R0R1R2             load regs to set trace
         XOPC  3                      turn on trace 
*
* 4. Set all of the 2K blocks of memory with a
*    protection byte of X'00'
*
         XR    7,7                    R7 will be R1, ZERO IT
         XR    8,8                    R8 will be R2, ZERO IT
LOOP     SSK   7,8                    Set Storage Key to 0
POINTHER XOPC  4                      Turn off trace after 1st SSK
         LA    8,X'800'(,8)           increment RB b 2K
         B     LOOP                   continue infinite loop
AFTERLOP XOPC  2                      Turn trace back on
         MVC   NPSWPC+5(3),REALPC+1   put @(PCFLIH) into PC New PSW
*
* Check that it was a SOC5 that caused the Program Check
*
         CLI   OPSWPC+3,5             See if int code was 5 (FOR SOC5)
         BNE   IPL0119                If not, stop
*
* Test if @(POINTHER) in old PC PSW
*
         LA    6,POINTHER             Get @POINTHER
         CLM   6,7,OPSWPC+5           If inst. addr in PSW POINTHER
         BNE   IPL0119                No, then stop
*
         L     3,76                   Get @CVT
         USING CVT,3                  CVT addressability
         BCTR  8,0                    Decrease HIGHEST by 1
         ST    8,CVTMZ00              Save HIGHEST address
*
* Print the value of CVTMZ00
*
         MVC   LSTOR+12(4),CVTMZ00    Put CVTMZ00 into LOUNTR stor
         BAL   1,LOUNTR               LOUNTR translates CVTMZ00
LSTOR    DC    CL16'L'                Storage for LOUNTR
         MVC   OUTVAL(8),LSTOR        Put value in print line
         XPRNT MESSAGEO,20            print value of CVTMZ00
*
* 5) Chain the 15 CB100 blocks and establish the CB100 header
*
         L 10,ADCBPOOL                GET ADDRESS OF POOL
         LA 0,CB100#                  GET # OF CB100S
CBATIPL  FRECB100            
         LA 10,CB100LTH(10)           MOVE TO THE NEXT 
         BCT 0,CBATIPL                DECREMENT # OF BLOCKS AND LOOP
*
* 6) Get CBs and chain them
*
* GET TCB FOR MS/NMI
*
         GETCB100
         LR    7,10                   PUT @ NMS TCB IN 7
         ST    7,CVTHEAD              SAVE @ NMS TCB INTO CVTHEAD
         USING TCB,7                  SET UP TCB ADDRESSABILITY
         XC    TCB(CB100LTH),TCB      CLEAR CB CONTENTS
         MVC   TCBTNAME(8),TCBTNVAL   SET TCBTNAME EXCEPT FOR 'n'
         MVI   TCBTNAME+3,C'M'        BECAUSE THIS IS THE MS/NMI TCB
         MVC   TCBIDENT(4),IDENTVAL   SET TCBIDENT 
         MVC   TCBGRS(8),GRSVAL       SET UP TCBGRS INIT VALUE
         MVC   TCBGRS+8(56),TCBGRS    REPEAT VALUE
         MVC   TCBAPIE(4),NIPPIE      Set A(NIPMSPIE) in NIPMS TCB
*
* GET RB FOR MS/NMI
*
         GETCB100 
* Pause - set the TCBRB field for the MS TCB
         ST    10,TCBRB               Set the TCBRB field
         LR    8,10                   GET @(MS/NMI) RB INTO R8                
         USING RB,8                   NOW WORK WITH THE RB
         XC    RB(CB100LTH),RB        CLEAR THE RB
         MVC   RBTYPE(4),RBTYPVAL     SET RBTYPE
         ST    7,RBTCB                POINT RBTCB AT TCB FOR MS/NMI
         OI    RBFLGS3,X'80'          SET BIT 0 TO 1 FOR A PRB
         MVC   RBOPSW(8),RB0PSW1      PSW FOR NIP/MS RB
         MVC   RBGRSAVE(8),RBGRSAV    SET RBGRSAVE TO INIT VALUE
         MVC   RBGRSAVE+8(56),RBGRSAVE REPEAT THIS VALUE
         MVC   RBFRSAVE(8),RBFRSAV    SET RBFRSAVE TO INIT VALUE
         MVC   RBFRSAVE+8(24),RBFRSAVE REPEAT THE VALUE
         STCM  7,7,RBLINK+1           SET RBLINK FIELD TCB
         DROP  8                      Done with this RB for now
*
* GET TCB FOR WAIT
*
         GETCB100
         LR    9,10                   GET @ WAIT TCB INTO R9
* Hold it! Update the "Next" field of the NMS TCB
         ST    9,TCBTCB               SAVE @ WAIT TCB IN NMS TCB
         DROP  7                      Done with NMS TCB 
* -Back to setting up the Wait TCB-
         USING TCB,9                  SET UP ADDR TO WAIT TCB
         XC    TCB(CB100LTH),TCB      CLEAR CB CONTENTS
         MVC   TCBTNAME(8),TCBTNVAL   SET TCBTNAME EXCEPT FOR 'n'
         MVI   TCBTNAME+3,C'W'        BECAUSE THIS IS THE WAIT TCB
         MVC   TCBIDENT(4),IDENTVAL   SET TCBIDENT
         MVC   TCBGRS(8),GRSVAL       SET UP TCBGRS INIT
         MVC   TCBGRS+8(56),TCBGRS    REPEAT VALUE
         ST    7,TCBBACK              SET TCB BACKWARD PTR TO MS/NMI     
*
* GET RB FOR WAIT
* 
         GETCB100
         USING RB,10                  SET UP WAIT RB ADDRESSABILITY
*
* Pause - Set TCBRB in the WaitTCB
*
         ST    10,TCBRB               Set TCB pointer in Wait TCB
         DROP  9                      Done with Wait TCB
         XC    RB(CB100LTH),RB        CLEAR CB CONTENTS
         MVC   RBTYPE(4),RBTYPVAL     SET RBTYPE
         ST    9,RBTCB                POINT RBTCB AT TCB FOR WAIT
         OI    RBFLGS3,X'80'          SET BIT 0 TO 1 FOR A PRB
         MVC   RBOPSW(8),RB0PSW2      PSW FOR WAIT
         MVC   RBGRSAVE(8),RBGRSAV    SET RBGRSAVE TO INIT VALUE
         MVC   RBGRSAVE+8(56),RBGRSAVE REPEAT THIS VALUE
         MVC   RBFRSAVE(8),RBFRSAV    SET RBFRSAVE TO INIT VALUE
         MVC   RBFRSAVE+8(24),RBFRSAVE REPEAT THE VALUE
         STCM  9,7,RBLINK+1           SET RBLINK FIELD TO TCB
         DROP  10                     DONE WITH WAIT RB
*
* 7) Load address of dispatcher and branch to it
*
         MVI   LEVELFLG,C'S'          LEVELFLG TO 'S' FOR SYSTEM
         MVI   TYP1FLAG,C'0'          TYP1FLAG TO 0
         L     12,CVT0DS              GET DISPATCHER ADDRESS
         BR    12                     BRANCH TO THE DISPATCHER
         DROP  3                      Done with the CVT
*
IPL0119  XOPC  25                     Die if anything goes wrong
         TITLE 'IPL ROUTINE STORAGE AREA'
*
**********************************************************************
* IPL PROGRAM STORAGE AREA
**********************************************************************
*
NIPPIE   DC    A(NIPMSPIE)            A(PIE) for NIP/MS
R0R1R2   DC    F'0'                   SET 'LOWEST' AREA TRACED ZERO
         DC    A(HIGHEST)             SET 'HIGHEST' AREA TRACED 'TOP'
         DC    XL4'00E08040'          TRACE CH. 0-1-2, SWAPS, PRIVOPS
TIMEVAL  DC    X'7FFFFFFF'            VALUE FOR SETTING THE CLOCK
REALPC   DC    A(PCFLIH)              ACTUAL ADDRESS OF PC FLIH
*
MESSAGEO DC    C' '                   CC FOR MESSAGEO
         DC    CL11'CVTMZ00 is '      FIRST PART OF MESSAGE
OUTVAL   DC    CL8' '                 CVTMZ00 VALUE ON PRINT LINE
ADCBPOOL DC    A(CB100POL)            ADDRESS OF THE CB100 BLOCK POOL